@<TRIPOS>MOLECULE
DT4
 50 53 0 0 0
SMALL
GASTEIGER

@<TRIPOS>ATOM
      1 O          -7.2080    0.1180    0.1020 O.2     1  LIG1       -0.1533
      2 S          -6.2160    0.6340   -0.7750 S.O2    1  LIG1        0.0559
      3 O          -6.0110    0.2210   -2.1190 O.2     1  LIG1       -0.1533
      4 N          -6.4790    2.2680   -0.8410 N.3     1  LIG1       -0.2035
      5 C          -4.6760    0.3810    0.0440 C.ar    1  LIG1        0.1051
      6 C          -4.6420    0.2340    1.4180 C.ar    1  LIG1       -0.0336
      7 C          -3.4370    0.0350    2.0630 C.ar    1  LIG1       -0.0387
      8 C          -2.2580   -0.0160    1.3290 C.ar    1  LIG1        0.0325
      9 C          -2.2960    0.1380   -0.0510 C.ar    1  LIG1       -0.0387
     10 C          -3.5050    0.3310   -0.6900 C.ar    1  LIG1       -0.0336
     11 N          -1.0370   -0.2170    1.9790 N.pl3   1  LIG1       -0.2992
     12 C           0.1120   -0.4170    1.2420 C.ar    1  LIG1        0.1315
     13 N           0.1940   -1.4530    0.3520 N.ar    1  LIG1       -0.1822
     14 N          -0.6980   -2.4630   -0.0310 N.ar    1  LIG1       -0.1506
     15 C          -0.0890   -3.1920   -0.9330 C.ar    1  LIG1        0.1406
     16 C           1.3330   -1.6470   -0.3770 C.ar    1  LIG1        0.2562
     17 N           1.1300   -2.7110   -1.1470 N.ar    1  LIG1       -0.1974
     18 N           2.3790   -0.8250   -0.2320 N.ar    1  LIG1       -0.1957
     19 C           2.3370    0.1850    0.6230 C.ar    1  LIG1        0.1261
     20 C           1.1850    0.4160    1.3880 C.ar    1  LIG1        0.0184
     21 N           3.4330    1.0190    0.7580 N.pl3   1  LIG1       -0.3260
     22 C           4.6380    0.7800   -0.0400 C.3     1  LIG1        0.0221
     23 C           5.4130    2.0900   -0.1990 C.3     1  LIG1       -0.0331
     24 C           6.6710    1.8410   -1.0320 C.3     1  LIG1       -0.0361
     25 C           7.5540    0.8090   -0.3260 C.3     1  LIG1        0.0050
     26 N           8.7620    0.5700   -1.1270 N.3     1  LIG1       -0.3272
     27 C           6.7790   -0.5010   -0.1670 C.3     1  LIG1       -0.0361
     28 C           5.5210   -0.2510    0.6660 C.3     1  LIG1       -0.0331
     29 H          -6.9870    2.6480   -1.5750 H       1  LIG1        0.1442
     30 H          -6.1250    2.8450   -0.1460 H       1  LIG1        0.1442
     31 H          -5.5580    0.2730    1.9880 H       1  LIG1        0.0638
     32 H          -3.4110   -0.0810    3.1370 H       1  LIG1        0.0637
     33 H          -1.3810    0.0990   -0.6240 H       1  LIG1        0.0637
     34 H          -3.5350    0.4470   -1.7630 H       1  LIG1        0.0638
     35 H          -0.9970   -0.2150    2.9480 H       1  LIG1        0.1536
     36 H          -0.5130   -4.0540   -1.4260 H       1  LIG1        0.1066
     37 H           1.1460    1.2410    2.0840 H       1  LIG1        0.0686
     38 H           3.4030    1.7620    1.3810 H       1  LIG1        0.1477
     39 H           4.3550    0.4040   -1.0230 H       1  LIG1        0.0498
     40 H           5.6960    2.4660    0.7840 H       1  LIG1        0.0284
     41 H           4.7840    2.8250   -0.7010 H       1  LIG1        0.0284
     42 H           7.2230    2.7740   -1.1450 H       1  LIG1        0.0281
     43 H           6.3880    1.4650   -2.0150 H       1  LIG1        0.0281
     44 H           7.8370    1.1850    0.6560 H       1  LIG1        0.0458
     45 H           9.3110   -0.1130   -0.6260 H       1  LIG1        0.1185
     46 H           8.4610    0.1280   -1.9820 H       1  LIG1        0.1185
     47 H           6.4960   -0.8770   -1.1500 H       1  LIG1        0.0281
     48 H           7.4080   -1.2360    0.3350 H       1  LIG1        0.0281
     49 H           5.8040    0.1250    1.6490 H       1  LIG1        0.0284
     50 H           4.9690   -1.1850    0.7790 H       1  LIG1        0.0284
@<TRIPOS>BOND
     1     1     2    2
     2     2     3    2
     3     2     4    1
     4     2     5    1
     5     4    29    1
     6     4    30    1
     7     5     6   ar
     8     5    10   ar
     9     6     7   ar
    10     6    31    1
    11     7     8   ar
    12     7    32    1
    13     8     9   ar
    14     8    11    1
    15     9    10   ar
    16     9    33    1
    17    10    34    1
    18    11    12    1
    19    11    35    1
    20    12    13   ar
    21    12    20   ar
    22    13    14   ar
    23    13    16   ar
    24    14    15   ar
    25    15    17   ar
    26    15    36    1
    27    16    17   ar
    28    16    18   ar
    29    18    19   ar
    30    19    20   ar
    31    19    21    1
    32    20    37    1
    33    21    22    1
    34    21    38    1
    35    22    23    1
    36    22    28    1
    37    22    39    1
    38    23    24    1
    39    23    40    1
    40    23    41    1
    41    24    25    1
    42    24    42    1
    43    24    43    1
    44    25    26    1
    45    25    27    1
    46    25    44    1
    47    26    45    1
    48    26    46    1
    49    27    28    1
    50    27    47    1
    51    27    48    1
    52    28    49    1
    53    28    50    1
