@<TRIPOS>MOLECULE
PHE
 23 23 0 0 0
SMALL
GASTEIGER

@<TRIPOS>ATOM
      1 N           1.3170    0.9620    1.0140 N.3     1  PHE1       -0.3181
      2 CA         -0.0200    0.4260    1.3000 C.3     1  PHE1        0.1072
      3 C          -0.1090    0.0470    2.7560 C.2     1  PHE1        0.3220
      4 O           0.8790   -0.3170    3.3460 O.2     1  PHE1       -0.2492
      5 CB         -0.2700   -0.8090    0.4340 C.3     1  PHE1       -0.0020
      6 CG         -0.1810   -0.4300   -1.0200 C.ar    1  PHE1       -0.0454
      7 CD1         1.0310   -0.4980   -1.6800 C.ar    1  PHE1       -0.0585
      8 CD2        -1.3140   -0.0180   -1.6980 C.ar    1  PHE1       -0.0585
      9 CE1         1.1120   -0.1500   -3.0150 C.ar    1  PHE1       -0.0615
     10 CE2        -1.2310    0.3330   -3.0320 C.ar    1  PHE1       -0.0615
     11 CZ         -0.0180    0.2650   -3.6910 C.ar    1  PHE1       -0.0617
     12 OXT        -1.2860    0.1130    3.3960 O.3     1  PHE1       -0.4795
     13 H1          1.9750    0.2300    1.2350 H       1  PHE1        0.1190
     14 H2          1.3650    1.1040    0.0170 H       1  PHE1        0.1190
     15 HA         -0.7700    1.1840    1.0760 H       1  PHE1        0.0577
     16 HB1         0.4800   -1.5680    0.6590 H       1  PHE1        0.0334
     17 HB2        -1.2620   -1.2070    0.6460 H       1  PHE1        0.0334
     18 HD1         1.9150   -0.8240   -1.1520 H       1  PHE1        0.0620
     19 HD2        -2.2620    0.0340   -1.1830 H       1  PHE1        0.0620
     20 HE1         2.0600   -0.2030   -3.5300 H       1  PHE1        0.0618
     21 HE2        -2.1160    0.6590   -3.5600 H       1  PHE1        0.0618
     22 HZ          0.0450    0.5380   -4.7340 H       1  PHE1        0.0618
     23 HXT        -1.3430   -0.1300    4.3300 H       1  PHE1        0.2951
@<TRIPOS>BOND
     1     1     2    1
     2     1    13    1
     3     1    14    1
     4     2     3    1
     5     2     5    1
     6     2    15    1
     7     3     4    2
     8     3    12    1
     9     5     6    1
    10     5    16    1
    11     5    17    1
    12     6     7   ar
    13     6     8   ar
    14     7     9   ar
    15     7    18    1
    16     8    10   ar
    17     8    19    1
    18     9    11   ar
    19     9    20    1
    20    10    11   ar
    21    10    21    1
    22    11    22    1
    23    12    23    1
